/*--------------------------------*- C++ -*----------------------------------*\
| =========                 |                                                 |
| \\      /  F ield         | OpenFOAM: The Open Source CFD Toolbox           |
|  \\    /   O peration     | Version:  v2412                                 |
|   \\  /    A nd           | Website:  www.openfoam.com                      |
|    \\/     M anipulation  |                                                 |
\*---------------------------------------------------------------------------*/
FoamFile
{
    version     2.0;
    format      ascii;
    class       dictionary;
    object      controlDict;
}
// * * * * * * * * * * * * * * * * * * * * * * * * * * * * * * * * * * * * * //

application     rhoPimpleFoam;

startFrom       latestTime;

startTime       0;

stopAt          endTime;

endTime         3.0;

deltaT          1e-07;

writeControl    runTime;

writeInterval   0.0005;

purgeWrite      0;

writeFormat     ascii;

writePrecision  14;

writeCompression off;

timeFormat      general;

timePrecision   12;

runTimeModifiable true;

adjustTimeStep  true;

maxCo           0.1;

functions
{
    fieldAverage1
    {
        type            fieldAverage;
        libs            (fieldFunctionObjects);
        writeControl    writeTime;

        fields
        (
            U
            {
                mean        on;
                prime2Mean  on;
                base        time;
            }

            p
            {
                mean        on;
                prime2Mean  on;
                base        time;
            }
        );
    }
}


// ************************************************************************* //
